Circuit: * C:\Users\SR118\Documents\LTspiceXVII\Draft2.asc

.OP point found by inspection.

Date: Tue Apr 21 20:57:41 2020
Total elapsed time: 0.086 seconds.

tnom = 27
temp = 27
method = modified trap
totiter = 2076
traniter = 2076
tranpoints = 1039
accept = 1037
rejected = 2
matrix size = 3
fillins = 0
solver = Normal
Matrix Compiler1: 50 bytes object code size  0.1/0.1/[0.0]
Matrix Compiler2: 175 bytes object code size  0.1/0.1/[0.1]

