Circuit: * C:\Users\sam's club\Desktop\2do Semestre ITC\m_ANA_SIS_ELE\hw\ltspice\sim_2\sim_2.asc

.OP point found by inspection.

Date: Wed Apr 22 11:37:47 2020
Total elapsed time: 47.420 seconds.

tnom = 27
temp = 27
method = modified trap
totiter = 4000096
traniter = 4000096
tranpoints = 2000049
accept = 2000047
rejected = 2
matrix size = 3
fillins = 0
solver = Normal
Matrix Compiler1:       3 opcodes  0.1/[0.0]/0.1
Matrix Compiler2: 175 bytes object code size  0.1/0.1/[0.1]

