Circuit: * C:\Users\sam's club\Desktop\2do Semestre ITC\m_ANA_SIS_ELE\hw\ltspice\sim_1\sim_1.asc

.OP point found by inspection.

Date: Wed Apr 22 11:35:16 2020
Total elapsed time: 49.732 seconds.

tnom = 27
temp = 27
method = modified trap
totiter = 4000092
traniter = 4000092
tranpoints = 2000047
accept = 2000046
rejected = 1
matrix size = 3
fillins = 0
solver = Normal
Matrix Compiler1:       3 opcodes  0.1/[0.0]/1.2
Matrix Compiler2: off  [0.1]/0.1/0.1

