Circuit: * C:\Users\sam's club\Desktop\2do Semestre ITC\m_ANA_SIS_ELE\hw\ltspice\sim_1.asc

.OP point found by inspection.

Date: Tue Apr 21 18:35:50 2020
Total elapsed time: 310.331 seconds.

tnom = 27
temp = 27
method = modified trap
totiter = 27791366
traniter = 27791366
tranpoints = 13895684
accept = 13895681
rejected = 3
matrix size = 3
fillins = 0
solver = Normal
Matrix Compiler1:       3 opcodes  0.1/[0.1]/0.3
Matrix Compiler2: 175 bytes object code size  0.1/0.1/[0.1]

